  Page 1                                    Sat Jul 16 19:48:50 2022

  ******************************************************************
  *                           E P A N E T                          *
  *                   Hydraulic and Water Quality                  *
  *                   Analysis for Pipe Networks                   *
  *                         Version 2.2                            *
  ******************************************************************
  
  Analysis begun Sat Jul 16 19:48:50 2022
