  Page 1                                    Sat Jan 22 12:44:52 2022

  ******************************************************************
  *                           E P A N E T                          *
  *                   Hydraulic and Water Quality                  *
  *                   Analysis for Pipe Networks                   *
  *                         Version 2.2                            *
  ******************************************************************
  
  Analysis begun Sat Jan 22 12:44:52 2022

  Analysis ended Sat Jan 22 12:44:52 2022
